STAAD SPACE DXF IMPORT OF PLAN
START JOB INFORMATION
ENGINEER DATE 14-Jun-25
END JOB INFORMATION
INPUT WIDTH 79
SET NL 500
UNIT METER KN
JOINT COORDINATES
1 7e-16 -1.5 0; 2 6 -1.5 0; 3 10.5 -1.5 0; 4 16.5 -1.5 0; 5 19.5 -1.5 0;
6 0 -1.5 6; 7 0 -1.5 12; 8 6 -1.5 12; 9 10.5 -1.5 12; 10 16.5 -1.5 12;
11 20.25 -1.5 6; 12 21 -1.5 12; 13 6 -1.5 6; 14 10.5 -1.5 6; 15 16.5 -1.5 6;
1000 19.5 0 0; 1001 0 0 6; 1002 20.25 0 6; 1003 0 0 12; 1004 21 0 12;
1005 7e-16 0 0; 1006 6 0 0; 1007 10.5 0 0; 1008 16.5 0 12; 1009 16.5 0 0;
1010 16.5 0 6; 1011 10.5 0 6; 1012 6 0 6; 1013 10.5 0 12; 1014 6 0 12;
2000 0 3.2 0; 2001 19.5 3.2 0; 2002 0 3.2 6; 2003 20.25 3.2 6; 2004 0 3.2 12;
2005 21 3.2 12; 2006 6 3.2 13.8589; 2007 6 3.2 0; 2008 10.5 3.2 13.8589;
2009 10.5 3.2 0; 2010 16.5 3.2 12; 2011 16.5 3.2 0; 2012 13.5 3.2 12;
2013 13.5 3.2 0; 2014 2 3.2 6; 2015 2 3.2 0; 2016 3 3.2 12; 2017 3 3.2 6;
2018 0.709281 3.2 12.3459; 2019 1.43303 3.2 12.6605; 2020 2.16986 3.2 12.943;
2021 2.91836 3.2 13.193; 2022 3.67708 3.2 13.41; 2023 4.44458 3.2 13.5935;
2024 5.21938 3.2 13.7433; 2025 11.2806 3.2 13.7433; 2026 12.0554 3.2 13.5935;
2027 12.8229 3.2 13.41; 2028 13.5816 3.2 13.193; 2029 14.3301 3.2 12.943;
2030 15.067 3.2 12.6605; 2031 15.7907 3.2 12.3459; 2032 6.74782 3.2 13.9373;
2033 7.49825 3.2 13.9843; 2034 8.25 3.2 14; 2035 9.00175 3.2 13.9843;
2036 9.75218 3.2 13.9373; 2037 6 3.2 6; 2038 6 3.2 12; 2039 10.5 3.2 6;
2040 10.5 3.2 12; 2041 16.5 3.2 6; 2042 13.5 3.2 6; 3000 0 6.4 0; 3001 2 6.4 0;
3002 0 6.4 6; 3003 2 6.4 6; 3004 0 6.4 12; 3005 3 6.4 12; 3006 6 6.4 0;
3007 10.5 6.4 0; 3008 6 6.4 12; 3009 13.5 6.4 0; 3010 10.5 6.4 12;
# ... 9 like lines cut
MEMBER INCIDENCES
1 1 1005; 2 2 1006; 3 3 1007; 4 4 1009; 5 5 1000; 6 6 1001; 7 7 1003; 8 8 1014;
9 9 1013; 10 10 1008; 11 11 1002; 12 12 1004; 13 13 1012; 14 14 1011;
15 15 1010; 100 1005 2000; 101 1006 2007; 102 1007 2009; 103 1009 2011;
104 1000 2001; 105 1001 2002; 106 1003 2004; 107 1014 2038; 108 1013 2040;
109 1008 2010; 110 1002 2003; 111 1004 2005; 112 1012 2037; 113 1011 2039;
114 1010 2041; 200 2000 3000; 201 2007 3006; 202 2009 3007; 203 2011 3013;
204 2001 3014; 205 2002 3002; 206 2004 3004; 207 2038 3008; 208 2040 3010;
209 2010 3011; 210 2003 3020; 211 2005 3012; 212 2037 3019; 213 2039 3021;
214 2041 3015; 300 3000 4000; 301 3006 4004; 302 3007 4005; 303 3013 4009;
304 3014 4010; 305 3002 4002; 306 3011 4007; 307 3020 4016; 308 3012 4008;
309 3019 4015; 310 3021 4017; 311 3015 4011; 312 3010 4018; 400 4005 5000;
401 4016 5006; 402 4017 5004; 403 4011 5005; 404 4009 5002; 405 4010 5003;
406 4006 5001; 407 4013 5007; 1000 1001 1003; 1001 1010 1008; 1002 1002 1004;
1003 1009 1000; 1004 1006 1007; 1005 1010 1002; 1006 1012 1011; 1007 1008 1004;
1008 1014 1013; 1009 1005 1001; 1010 1006 1012; 1011 1012 1014; 1012 1007 1011;
1013 1011 1013; 1014 1009 1010; 1015 1000 1002; 1016 1005 1006; 1017 1001 1012;
1018 1003 1014; 1019 1011 1010; 1020 1007 1009; 1021 1013 1008; 2000 2000 2015;
2001 2002 2014; 2002 2004 2016; 2003 2002 2004; 2004 2007 2009; 2005 2038 2006;
2006 2009 2013; 2007 2040 2008; 2008 2010 2005; 2009 2011 2001; 2010 2041 2010;
2011 2012 2010; 2012 2013 2011; 2013 2042 2012; 2014 2014 2017; 2015 2015 2007;
# ... 23 like lines cut
START GROUP DEFINITION
FLOOR
_2F-1W 2001 TO 2003 2005 TO 2007 2010 TO 2014 2017 TO 2019 2021 TO 2042 2045 -
2046 TO 2051 2053 2054
_2F-2W 2004 2008 2010 2014 TO 2016 2018 2020 2044 TO 2047 2051 2052 2055
_3F-1W 3001 TO 3003 3005 3008 TO 3012 3015 TO 3017 3021 TO 3026 3029 3030
_3F-2W 3004 3006 3008 3012 TO 3014 3016 3018 3020 TO 3023 3027 3028 3031
_RD_1W 4000 4001 4003 4006 TO 4009 4012 4015 4017 TO 4021 4023 4024
_RD_2W 4002 4004 4006 4010 TO 4014 4016 4017 4022 4025
_RF_1W 5000 5002 TO 5004 5006 5007 5009
_RF_2W 5001 5004 5005 5008
END GROUP DEFINITION
DEFINE MATERIAL START
ISOTROPIC CONCRETE
E 2.17185e+07
POISSON 0.17
DENSITY 23.5616
ALPHA 1e-05
DAMP 0.05
G 9.28139e+06
TYPE CONCRETE
STRENGTH FCU 27579
END DEFINE MATERIAL
MEMBER PROPERTY
2000 TO 2004 2006 2008 TO 2012 2014 2015 2017 2018 2020 2043 TO 2048 2050 -
2051 TO 2056 3000 TO 3010 3012 3013 3015 3016 3018 TO 3024 3026 TO 3032 4000 -
4001 TO 4008 4010 4011 4013 TO 4019 4021 TO 4026 5000 TO 5007 -
5008 PRIS YD 0.55 ZD 0.3
1000 TO 1021 2013 2016 2019 2049 3011 3014 3017 3025 4009 4012 4020 -
5009 PRIS YD 0.4 ZD 0.25
2005 2007 2021 TO 2042 PRIS YD 0.4 ZD 0.2
1 TO 7 10 TO 12 100 TO 106 109 TO 111 200 TO 206 209 TO 211 300 TO 308 400 -
401 404 405 PRIS YD 0.5 ZD 0.4
8 9 107 108 207 208 312 PRIS YD 0.5
13 TO 15 112 TO 114 212 TO 214 309 TO 311 402 403 PRIS YD 0.5 ZD 0.5
406 407 PRIS YD 0.3 ZD 0.3
CONSTANTS
BETA 90 MEMB 1 6 7 100 105 106 200 205 206 300 305
BETA -83 MEMB 5 11 12 104 110 111 204 210 211 304 307 308 401 405
MATERIAL CONCRETE ALL
MEMBER RELEASE
2013 2016 2019 2049 3011 3014 3017 3025 4009 4012 4020 5009 START MY MZ
2013 2016 2019 2049 3011 3014 3017 3025 4009 4012 4020 5009 END MY MZ
SUPPORTS
1 TO 15 FIXED
MEMBER CRACKED
1000 TO 1021 2000 TO 2056 3000 TO 3032 4000 TO 4026 5000 TO 5008 -
5009 REDUCTION RIX 0.1 RIY 0.35 RIZ 0.35
1 TO 15 100 TO 114 200 TO 214 300 TO 312 400 TO 406 -
407 REDUCTION RIX 0.7 RIY 0.7 RIZ 0.7
MEMBER OFFSET
2000 TO 2004 2006 2008 TO 2012 2014 2015 2017 2018 2020 2043 TO 2048 2050 -
2051 TO 2056 3000 TO 3010 3012 3013 3015 3016 3018 TO 3024 3026 TO 3032 4000 -
4001 TO 4008 4010 4011 4013 TO 4019 4021 TO 4026 5000 TO 5007 -
5008 START 0 -0.25 0
2000 TO 2004 2006 2008 TO 2012 2014 2015 2017 2018 2020 2043 TO 2048 2050 -
2051 TO 2056 3000 TO 3010 3012 3013 3015 3016 3018 TO 3024 3026 TO 3032 4000 -
4001 TO 4008 4010 4011 4013 TO 4019 4021 TO 4026 5000 TO 5008 END 0 -0.25 0
1000 TO 1021 2005 2007 2013 2016 2019 2021 TO 2042 2049 3011 3014 3017 3025 -
4009 4012 4020 5009 START 0 -0.2 0
1000 TO 1021 2005 2007 2013 2016 2019 2021 TO 2042 2049 3011 3014 3017 3025 -
4009 4012 4020 5009 END 0 -0.2 0
DEFINE REFERENCE LOADS
LOAD R1 LOADTYPE Mass  TITLE REF MASS MODEL
SELFWEIGHT X 1 
SELFWEIGHT Y 1 
SELFWEIGHT Z 1 
ONEWAY LOAD
_2F-1W ONE 2.5 GX
_2F-1W ONE 2.5 GY
_2F-1W ONE 2.5 GZ
FLOOR LOAD
_2F-2W FLOAD 2.5 GX
_2F-2W FLOAD 2.5 GY
_2F-2W FLOAD 2.5 GZ
ONEWAY LOAD
_3F-1W ONE 2.5 GX
_3F-1W ONE 2.5 GY
_3F-1W ONE 2.5 GZ
FLOOR LOAD
_3F-2W FLOAD 2.5 GX
_3F-2W FLOAD 2.5 GY
_3F-2W FLOAD 2.5 GZ
ONEWAY LOAD
_RD_1W ONE 2.5 GX
_RD_1W ONE 2.5 GY
_RD_1W ONE 2.5 GZ
FLOOR LOAD
_RD_2W FLOAD 2.5 GX
_RD_2W FLOAD 2.5 GY
_RD_2W FLOAD 2.5 GZ
ONEWAY LOAD
_RF_1W ONE 2.5 GX
_RF_1W ONE 2.5 GY
_RF_1W ONE 2.5 GZ
FLOOR LOAD
_RF_2W FLOAD 2.5 GX
_RF_2W FLOAD 2.5 GY
_RF_2W FLOAD 2.5 GZ
MEMBER LOAD
2000 2001 2009 2052 3000 3001 3007 3028 4001 4022 UNI GX 22.5
2000 2001 2009 2052 3000 3001 3007 3028 4001 4022 UNI GY 22.5
2000 2001 2009 2052 3000 3001 3007 3028 4001 4022 UNI GZ 22.5
ONEWAY LOAD
_2F-1W ONE 1.07 GX
_2F-1W ONE 1.07 GY
_2F-1W ONE 1.07 GZ
FLOOR LOAD
_2F-2W FLOAD 1.07 GX
_2F-2W FLOAD 1.07 GY
_2F-2W FLOAD 1.07 GZ
ONEWAY LOAD
_3F-1W ONE 1.07 GX
_3F-1W ONE 1.07 GY
_3F-1W ONE 1.07 GZ
FLOOR LOAD
_3F-2W FLOAD 1.07 GX
_3F-2W FLOAD 1.07 GY
_3F-2W FLOAD 1.07 GZ
ONEWAY LOAD
_RD_1W ONE 1.27 GX
_RD_1W ONE 1.27 GY
_RD_1W ONE 1.27 GZ
FLOOR LOAD
_RD_2W FLOAD 1.27 GX
_RD_2W FLOAD 1.27 GY
_RD_2W FLOAD 1.27 GZ
ONEWAY LOAD
_RF_1W ONE 1.27 GX
_RF_1W ONE 1.27 GY
_RF_1W ONE 1.27 GZ
FLOOR LOAD
_RF_2W FLOAD 1.27 GX
_RF_2W FLOAD 1.27 GY
_RF_2W FLOAD 1.27 GZ
MEMBER LOAD
2000 2002 TO 2004 2006 2008 2009 2011 2012 2015 2017 2020 2043 2050 2051 -
2056 3000 3002 TO 3007 3009 3010 3013 3015 3018 3019 3026 3027 -
3032 UNI GX 8.046
2000 2002 TO 2004 2006 2008 2009 2011 2012 2015 2017 2020 2043 2050 2051 -
2056 3000 3002 TO 3007 3009 3010 3013 3015 3018 3019 3026 3027 -
3032 UNI GY 8.046
2000 2002 TO 2004 2006 2008 2009 2011 2012 2015 2017 2020 2043 2050 2051 -
2056 3000 3002 TO 3007 3009 3010 3013 3015 3018 3019 3026 3027 -
3032 UNI GZ 8.046
MEMBER LOAD
4003 4005 4008 4017 4022 TO 4024 4026 UNI GX 7.45
4003 4005 4008 4017 4022 TO 4024 4026 UNI GY 7.45
4003 4005 4008 4017 4022 TO 4024 4026 UNI GZ 7.45
MEMBER LOAD
4000 TO 4002 4004 4007 4011 4013 TO 4015 4018 4021 4025 UNI GX 2.98
4000 TO 4002 4004 4007 4011 4013 TO 4015 4018 4021 4025 UNI GY 2.98
4000 TO 4002 4004 4007 4011 4013 TO 4015 4018 4021 4025 UNI GZ 2.98
END DEFINE REFERENCE LOADS
FLOOR DIAPHRAGM
DIA 1 TYPE RIG HEI 3.2
DIA 2 TYPE RIG HEI 6.4
DIA 3 TYPE RIG HEI 9.6
CHECK SOFT STORY ASCE7
CHECK IRREGULARITIES CODE ASCE7
DEFINE UBC LOAD
ZONE 0.4 I 1 RWX 8.5 RWZ 8.5 STYP 4 CT 0.0731 NA 1 NV 1.2
LOAD 1 LOADTYPE Seismic-H  TITLE EX
UBC LOAD X 1 DEC 1 ACC 0.05
PERFORM ANALYSIS PRINT LOAD DATA
CHANGE
LOAD 2 LOADTYPE Seismic-H  TITLE EZ
UBC LOAD Z 1 DEC 1 ACC 0.05
PERFORM ANALYSIS PRINT LOAD DATA
CHANGE
LOAD 3 LOADTYPE Dead  TITLE DL1
SELFWEIGHT Y -1 
ONEWAY LOAD
_2F-1W ONE -2.5 GY
FLOOR LOAD
_2F-2W FLOAD -2.5 GY
ONEWAY LOAD
_3F-1W ONE -2.5 GY
FLOOR LOAD
_3F-2W FLOAD -2.5 GY
ONEWAY LOAD
_RD_1W ONE -2.5 GY
FLOOR LOAD
_RD_2W FLOAD -2.5 GY
ONEWAY LOAD
_RF_1W ONE -2.5 GY
FLOOR LOAD
_RF_2W FLOAD -2.5 GY
MEMBER LOAD
2000 2001 2009 2052 3001 3007 3028 4022 UNI GY -22.5
LOAD 4 LOADTYPE Dead  TITLE DL2
ONEWAY LOAD
_2F-1W ONE -1.07 GY
FLOOR LOAD
_2F-2W FLOAD -1.07 GY
ONEWAY LOAD
_3F-1W ONE -1.07 GY
FLOOR LOAD
_3F-2W FLOAD -1.07 GY
ONEWAY LOAD
_RD_1W ONE -1.27 GY
FLOOR LOAD
_RD_2W FLOAD -1.27 GY
ONEWAY LOAD
_RF_1W ONE -1.27 GY
FLOOR LOAD
_RF_2W FLOAD -1.27 GY
MEMBER LOAD
2000 2002 TO 2004 2006 2008 2009 2011 2012 2015 2017 2020 2043 2050 2051 -
2056 3000 3002 TO 3007 3009 3010 3013 3015 3018 3019 3026 3027 -
3032 UNI GY -8.046
4003 4005 4008 4017 4022 TO 4024 4026 UNI GY -7.45
4000 TO 4002 4004 4007 4010 4011 4013 TO 4015 4018 4021 4025 UNI GY -2.98
LOAD 5 LOADTYPE Live  TITLE LL1
ONEWAY LOAD
_2F-1W ONE -2.4 GY
FLOOR LOAD
_2F-2W FLOAD -2.4 GY
ONEWAY LOAD
_3F-1W ONE -2.4 GY
FLOOR LOAD
_3F-2W FLOAD -2.4 GY
ONEWAY LOAD
_RD_1W ONE -2.4 GY
FLOOR LOAD
_RD_2W FLOAD -2.4 GY
LOAD 6 LOADTYPE Live  TITLE LL2
MEMBER LOAD
2000 2001 2009 2052 3000 3001 3007 3028 4001 4022 UNI GY -14.4
LOAD 7 LOADTYPE Live  TITLE LLR
ONEWAY LOAD
_RF_1W ONE -1.9 GY
FLOOR LOAD
_RF_2W FLOAD -1.9 GY
********************************************
**LRFD DESIGN LOAD COMBINATION - FOR CONCRETE DESIGN OF BEAMS AND COLUMNS
LOAD COMB 101 1.4(DL1 + DL2)
1 0.0 2 0.0 3 1.4 4 1.4 5 0.0 6 0.0 7 0.0 
LOAD COMB 102 1.2(DL1 + DL2) + 1.6(LL1 + LL2) + 0.5LLR
1 0.0 2 0.0 3 1.2 4 1.2 5 1.6 6 1.6 7 0.5 
LOAD COMB 103 1.2(DL1 + DL2) + 0.5LL1 + 1.0LL2 + 1.6LLR
1 0.0 2 0.0 3 1.2 4 1.2 5 0.5 6 1.0 7 1.6 
LOAD COMB 104 1.42(DL1 + DL2) + 0.5LL1 + 0.5LLR + 1.0LL2 + 1.0EX + 0.3EZ
1 1.0 2 0.3 3 1.42 4 1.42 5 0.5 6 1.0 7 0.5 
LOAD COMB 105 1.42(DL1 + DL2) + 0.5LL1 + 0.5LLR + 1.0LL2 + 1.0EX - 0.3EZ
1 1.0 2 -0.3 3 1.42 4 1.42 5 0.5 6 1.0 7 0.5 
LOAD COMB 106 1.42(DL1 + DL2) + 0.5LL1 + 0.5LLR + 1.0LL2 - 1.0EX + 0.3EZ
1 -1.0 2 0.3 3 1.42 4 1.42 5 0.5 6 1.0 7 0.5 
LOAD COMB 107 1.42(DL1 + DL2) + 0.5LL1 + 0.5LLR + 1.0LL2 - 1.0EX - 0.3EZ
1 -1.0 2 -0.3 3 1.42 4 1.42 5 0.5 6 1.0 7 0.5 
LOAD COMB 108 1.42(DL1 + DL2) + 0.5LL1 + 0.5LLR + 1.0LL2 + 1.0EZ + 0.3EX
1 0.3 2 1.0 3 1.42 4 1.42 5 0.5 6 1.0 7 0.5 
LOAD COMB 109 1.42(DL1 + DL2) + 0.5LL1 + 0.5LLR + 1.0LL2 + 1.0EZ - 0.3EX
1 -0.3 2 1.0 3 1.42 4 1.42 5 0.5 6 1.0 7 0.5 
LOAD COMB 110 1.42(DL1 + DL2) + 0.5LL1 + 0.5LLR + 1.0LL2 - 1.0EZ + 0.3EX
1 0.3 2 -1.0 3 1.42 4 1.42 5 0.5 6 1.0 7 0.5 
LOAD COMB 111 1.42(DL1 + DL2) + 0.5LL1 + 0.5LLR + 1.0LL2 - 1.0EZ - 0.3EX
1 -0.3 2 -1.0 3 1.42 4 1.42 5 0.5 6 1.0 7 0.5 
LOAD COMB 112 0.98(DL1 + DL2) + 0.5LL1 + 0.5LLR + 1.0LL2 + 1.0EX + 0.3EZ
1 1.0 2 0.3 3 0.98 4 0.98 5 0.5 6 1.0 7 0.5 
LOAD COMB 113 0.98(DL1 + DL2) + 0.5LL1 + 0.5LLR + 1.0LL2 + 1.0EX - 0.3EZ
1 1.0 2 -0.3 3 0.98 4 0.98 5 0.5 6 1.0 7 0.5 
LOAD COMB 114 0.98(DL1 + DL2) + 0.5LL1 + 0.5LLR + 1.0LL2 - 1.0EX + 0.3EZ
1 -1.0 2 0.3 3 0.98 4 0.98 5 0.5 6 1.0 7 0.5 
LOAD COMB 115 0.98(DL1 + DL2) + 0.5LL1 + 0.5LLR + 1.0LL2 - 1.0EX - 0.3EZ
1 -1.0 2 -0.3 3 0.98 4 0.98 5 0.5 6 1.0 7 0.5 
LOAD COMB 116 0.98(DL1 + DL2) + 0.5LL1 + 0.5LLR + 1.0LL2 + 1.0EZ + 0.3EX
1 0.3 2 1.0 3 0.98 4 0.98 5 0.5 6 1.0 7 0.5 
LOAD COMB 117 0.98(DL1 + DL2) + 0.5LL1 + 0.5LLR + 1.0LL2 + 1.0EZ - 0.3EX
1 -0.3 2 1.0 3 0.98 4 0.98 5 0.5 6 1.0 7 0.5 
LOAD COMB 118 0.98(DL1 + DL2) + 0.5LL1 + 0.5LLR + 1.0LL2 - 1.0EZ + 0.3EX
1 0.3 2 -1.0 3 0.98 4 0.98 5 0.5 6 1.0 7 0.5 
LOAD COMB 119 0.98(DL1 + DL2) + 0.5LL1 + 0.5LLR + 1.0LL2 - 1.0EZ - 0.3EX
1 -0.3 2 -1.0 3 0.98 4 0.98 5 0.5 6 1.0 7 0.5 
LOAD COMB 120 1.12(DL1 + DL2) + 1.0EX + 0.3EZ
1 1.0 2 0.3 3 1.12 4 1.12 5 0.0 6 0.0 7 0.0 
LOAD COMB 121 1.12(DL1 + DL2) + 1.0EX - 0.3EZ
1 1.0 2 -0.3 3 1.12 4 1.12 5 0.0 6 0.0 7 0.0 
LOAD COMB 122 1.12(DL1 + DL2) - 1.0EX + 0.3EZ
1 -1.0 2 0.3 3 1.12 4 1.12 5 0.0 6 0.0 7 0.0 
LOAD COMB 123 1.12(DL1 + DL2) - 1.0EX - 0.3EZ
1 -1.0 2 -0.3 3 1.12 4 1.12 5 0.0 6 0.0 7 0.0 
LOAD COMB 124 1.12(DL1 + DL2) + 1.0EZ + 0.3EX
1 0.3 2 1.0 3 1.12 4 1.12 5 0.0 6 0.0 7 0.0 
LOAD COMB 125 1.12(DL1 + DL2) + 1.0EZ - 0.3EX
1 -0.3 2 1.0 3 1.12 4 1.12 5 0.0 6 0.0 7 0.0 
LOAD COMB 126 1.12(DL1 + DL2) - 1.0EZ + 0.3EX
1 0.3 2 -1.0 3 1.12 4 1.12 5 0.0 6 0.0 7 0.0 
LOAD COMB 127 1.12(DL1 + DL2) - 1.0EZ - 0.3EX
1 -0.3 2 -1.0 3 1.12 4 1.12 5 0.0 6 0.0 7 0.0 
LOAD COMB 128 0.68(DL1 + DL2) + 1.0EX + 0.3EZ
1 1.0 2 0.3 3 0.68 4 0.68 5 0.0 6 0.0 7 0.0 
LOAD COMB 129 0.68(DL1 + DL2) + 1.0EX - 0.3EZ
1 1.0 2 -0.3 3 0.68 4 0.68 5 0.0 6 0.0 7 0.0 
LOAD COMB 130 0.68(DL1 + DL2) - 1.0EX + 0.3EZ
1 -1.0 2 0.3 3 0.68 4 0.68 5 0.0 6 0.0 7 0.0 
LOAD COMB 131 0.68(DL1 + DL2) - 1.0EX - 0.3EZ
1 -1.0 2 -0.3 3 0.68 4 0.68 5 0.0 6 0.0 7 0.0 
LOAD COMB 132 0.68(DL1 + DL2) + 1.0EZ + 0.3EX
1 0.3 2 1.0 3 0.68 4 0.68 5 0.0 6 0.0 7 0.0 
LOAD COMB 133 0.68(DL1 + DL2) + 1.0EZ - 0.3EX
1 -0.3 2 1.0 3 0.68 4 0.68 5 0.0 6 0.0 7 0.0 
LOAD COMB 134 0.68(DL1 + DL2) - 1.0EZ + 0.3EX
1 0.3 2 -1.0 3 0.68 4 0.68 5 0.0 6 0.0 7 0.0 
LOAD COMB 135 0.68(DL1 + DL2) - 1.0EZ - 0.3EX
1 -0.3 2 -1.0 3 0.68 4 0.68 5 0.0 6 0.0 7 0.0 
******
**SEISMIC DRIFT CHECK LOAD COMBINATION
LOAD COMB 201 1.2(DL1 + DL2) + 0.5LL1 + 0.5LLR + 1.0LL2 + 1.0EX + 0.3EZ
1 1.0 2 0.3 3 1.2 4 1.2 5 0.5 6 1.0 7 0.5 
LOAD COMB 202 1.2(DL1 + DL2) + 0.5LL1 + 0.5LLR + 1.0LL2 + 1.0EX - 0.3EZ
1 1.0 2 -0.3 3 1.2 4 1.2 5 0.5 6 1.0 7 0.5 
LOAD COMB 203 1.2(DL1 + DL2) + 0.5LL1 + 0.5LLR + 1.0LL2 - 1.0EX + 0.3EZ
1 -1.0 2 0.3 3 1.2 4 1.2 5 0.5 6 1.0 7 0.5 
LOAD COMB 204 1.2(DL1 + DL2) + 0.5LL1 + 0.5LLR + 1.0LL2 - 1.0EX - 0.3EZ
1 -1.0 2 -0.3 3 1.2 4 1.2 5 0.5 6 1.0 7 0.5 
LOAD COMB 205 1.2(DL1 + DL2) + 0.5LL1 + 0.5LLR + 1.0LL2 + 1.0EZ + 0.3EX
1 0.3 2 1.0 3 1.2 4 1.2 5 0.5 6 1.0 7 0.5 
LOAD COMB 206 1.2(DL1 + DL2) + 0.5LL1 + 0.5LLR + 1.0LL2 + 1.0EZ - 0.3EX
1 -0.3 2 1.0 3 1.2 4 1.2 5 0.5 6 1.0 7 0.5 
LOAD COMB 207 1.2(DL1 + DL2) + 0.5LL1 + 0.5LLR + 1.0LL2 - 1.0EZ + 0.3EX
1 0.3 2 -1.0 3 1.2 4 1.2 5 0.5 6 1.0 7 0.5 
LOAD COMB 208 1.2(DL1 + DL2) + 0.5LL1 + 0.5LLR + 1.0LL2 - 1.0EZ - 0.3EX
1 -0.3 2 -1.0 3 1.2 4 1.2 5 0.5 6 1.0 7 0.5 
LOAD COMB 209 0.9(DL1 + DL2) + 1.0EX + 0.3EZ
1 1.0 2 0.3 3 0.9 4 0.9 5 0.0 6 0.0 7 0.0 
LOAD COMB 210 0.9(DL1 + DL2) + 1.0EX - 0.3EZ
1 1.0 2 -0.3 3 0.9 4 0.9 5 0.0 6 0.0 7 0.0 
LOAD COMB 211 0.9(DL1 + DL2) - 1.0EX + 0.3EZ
1 -1.0 2 0.3 3 0.9 4 0.9 5 0.0 6 0.0 7 0.0 
LOAD COMB 212 0.9(DL1 + DL2) - 1.0EX - 0.3EZ
1 -1.0 2 -0.3 3 0.9 4 0.9 5 0.0 6 0.0 7 0.0 
LOAD COMB 213 0.9(DL1 + DL2) + 1.0EZ + 0.3EX
1 0.3 2 1.0 3 0.9 4 0.9 5 0.0 6 0.0 7 0.0 
LOAD COMB 214 0.9(DL1 + DL2) + 1.0EZ - 0.3EX
1 -0.3 2 1.0 3 0.9 4 0.9 5 0.0 6 0.0 7 0.0 
LOAD COMB 215 0.9(DL1 + DL2) - 1.0EZ + 0.3EX
1 0.3 2 -1.0 3 0.9 4 0.9 5 0.0 6 0.0 7 0.0 
LOAD COMB 216 0.9(DL1 + DL2) - 1.0EZ - 0.3EX
1 -0.3 2 -1.0 3 0.9 4 0.9 5 0.0 6 0.0 7 0.0 
******
**SERVICE LOAD COMBINATION - FOR FOOTING SIZING
LOAD COMB 301 1.0(DL1 + DL2)  + 1.0(LL1 + LL2) + 1.0LLR
1 0.0 2 0.0 3 1.0 4 1.0 5 1.0 6 1.0 7 1.0 
LOAD COMB 302 1.0(DL1 + DL2) + 0.75(LL1 + LL2) + 0.75LLR + 0.536EX + 0.161EZ
1 0.536 2 0.161 3 1.0 4 1.0 5 0.75 6 0.75 7 0.75 
LOAD COMB 303 1.0(DL1 + DL2) + 0.75(LL1 + LL2) + 0.75LLR + 0.536EX - 0.161EZ
1 0.536 2 -0.161 3 1.0 4 1.0 5 0.75 6 0.75 7 0.75 
LOAD COMB 304 1.0(DL1 + DL2) + 0.75(LL1 + LL2) + 0.75LLR - 0.536EX + 0.161EZ
1 -0.536 2 0.161 3 1.0 4 1.0 5 0.75 6 0.75 7 0.75 
LOAD COMB 305 1.0(DL1 + DL2) + 0.75(LL1 + LL2) + 0.75LLR - 0.536EX - 0.161EZ
1 -0.536 2 -0.161 3 1.0 4 1.0 5 0.75 6 0.75 7 0.75 
LOAD COMB 306 1.0(DL1 + DL2) + 0.75(LL1 + LL2) + 0.75LLR + 0.536EZ + 0.161EX
1 0.161 2 0.536 3 1.0 4 1.0 5 0.75 6 0.75 7 0.75 
LOAD COMB 307 1.0(DL1 + DL2) + 0.75(LL1 + LL2) + 0.75LLR + 0.536EZ - 0.161EX
1 -0.161 2 0.536 3 1.0 4 1.0 5 0.75 6 0.75 7 0.75 
LOAD COMB 308 1.0(DL1 + DL2) + 0.75(LL1 + LL2) + 0.75LLR - 0.536EZ + 0.161EX
1 0.161 2 -0.536 3 1.0 4 1.0 5 0.75 6 0.75 7 0.75 
LOAD COMB 309 1.0(DL1 + DL2) + 0.75(LL1 + LL2) + 0.75LLR - 0.536EZ - 0.161EX
1 -0.161 2 -0.536 3 1.0 4 1.0 5 0.75 6 0.75 7 0.75 
LOAD COMB 310 0.6(DL1 + DL2) + 0.714EX + 0.214EZ
1 0.714 2 0.214 3 0.6 4 0.6 5 0.0 6 0.0 7 0.0 
LOAD COMB 311 0.6(DL1 + DL2) + 0.714EX - 0.214EZ
1 0.714 2 -0.214 3 0.6 4 0.6 5 0.0 6 0.0 7 0.0 
LOAD COMB 312 0.6(DL1 + DL2) - 0.714EX + 0.214EZ
1 -0.714 2 0.214 3 0.6 4 0.6 5 0.0 6 0.0 7 0.0 
LOAD COMB 313 0.6(DL1 + DL2) - 0.714EX - 0.214EZ
1 -0.714 2 -0.214 3 0.6 4 0.6 5 0.0 6 0.0 7 0.0 
LOAD COMB 314 0.6(DL1 + DL2) + 0.714EZ + 0.214EX
1 0.214 2 0.714 3 0.6 4 0.6 5 0.0 6 0.0 7 0.0 
LOAD COMB 315 0.6(DL1 + DL2) + 0.714EZ - 0.214EX
1 -0.214 2 0.714 3 0.6 4 0.6 5 0.0 6 0.0 7 0.0 
LOAD COMB 316 0.6(DL1 + DL2) - 0.714EZ + 0.214EX
1 0.214 2 -0.714 3 0.6 4 0.6 5 0.0 6 0.0 7 0.0 
LOAD COMB 317 0.6(DL1 + DL2) - 0.714EZ - 0.214EX
1 -0.214 2 -0.714 3 0.6 4 0.6 5 0.0 6 0.0 7 0.0 
LOAD COMB 318 1.0(DL1 + DL2) + 1.0(LL1 + LL2 + LLR) + 0.714EX + 0.214EZ
1 0.714 2 0.214 3 1.0 4 1.0 5 1.0 6 1.0 7 1.0 
LOAD COMB 319 1.0(DL1 + DL2) + 1.0(LL1 + LL2 + LLR) + 0.714EX - 0.214EZ
1 0.714 2 -0.214 3 1.0 4 1.0 5 1.0 6 1.0 7 1.0 
LOAD COMB 320 1.0(DL1 + DL2) + 1.0(LL1 + LL2 + LLR) - 0.714EX + 0.214EZ
1 -0.714 2 0.214 3 1.0 4 1.0 5 1.0 6 1.0 7 1.0 
LOAD COMB 321 1.0(DL1 + DL2) + 1.0(LL1 + LL2 + LLR) - 0.714EX - 0.214EZ
1 -0.714 2 -0.214 3 1.0 4 1.0 5 1.0 6 1.0 7 1.0 
LOAD COMB 322 1.0(DL1 + DL2) + 1.0(LL1 + LL2 + LLR) + 0.714EZ + 0.214EX
1 0.214 2 0.714 3 1.0 4 1.0 5 1.0 6 1.0 7 1.0 
LOAD COMB 323 1.0(DL1 + DL2) + 1.0(LL1 + LL2 + LLR) + 0.714EZ - 0.214EX
1 -0.214 2 0.714 3 1.0 4 1.0 5 1.0 6 1.0 7 1.0 
LOAD COMB 324 1.0(DL1 + DL2) + 1.0(LL1 + LL2 + LLR) - 0.714EZ + 0.214EX
1 0.214 2 -0.714 3 1.0 4 1.0 5 1.0 6 1.0 7 1.0 
LOAD COMB 325 1.0(DL1 + DL2) + 1.0(LL1 + LL2 + LLR) - 0.714EZ - 0.214EX
1 -0.214 2 -0.714 3 1.0 4 1.0 5 1.0 6 1.0 7 1.0 
******
**LRFD DESIGN LOAD COMBINATION - FOR FOOTING DESIGN
LOAD COMB 401 1.4(DL1 + DL2)
1 0.0 2 0.0 3 1.4 4 1.4 5 0.0 6 0.0 7 0.0 
LOAD COMB 402 1.2(DL1 + DL2) + 1.6(LL1 + LL2) + 0.5LLR
1 0.0 2 0.0 3 1.2 4 1.2 5 1.6 6 1.6 7 0.5 
LOAD COMB 403 1.2(DL1 + DL2) + 0.5LL1 + 1.0LL2 + 1.6LLR
1 0.0 2 0.0 3 1.2 4 1.2 5 0.5 6 1.0 7 1.6 
LOAD COMB 404 1.2(DL1 + DL2) + 0.5LL1 + 0.5LLR + 1.0LL2 + 1.0EX + 0.3EZ
1 1.0 2 0.3 3 1.2 4 1.2 5 0.5 6 1.0 7 0.5 
LOAD COMB 405 1.2(DL1 + DL2) + 0.5LL1 + 0.5LLR + 1.0LL2 + 1.0EX - 0.3EZ
1 1.0 2 -0.3 3 1.2 4 1.2 5 0.5 6 1.0 7 0.5 
LOAD COMB 406 1.2(DL1 + DL2) + 0.5LL1 + 0.5LLR + 1.0LL2 - 1.0EX + 0.3EZ
1 -1.0 2 0.3 3 1.2 4 1.2 5 0.5 6 1.0 7 0.5 
LOAD COMB 407 1.2(DL1 + DL2) + 0.5LL1 + 0.5LLR + 1.0LL2 - 1.0EX - 0.3EZ
1 -1.0 2 -0.3 3 1.2 4 1.2 5 0.5 6 1.0 7 0.5 
LOAD COMB 408 1.2(DL1 + DL2) + 0.5LL1 + 0.5LLR + 1.0LL2 + 1.0EZ + 0.3EX
1 0.3 2 1.0 3 1.2 4 1.2 5 0.5 6 1.0 7 0.5 
LOAD COMB 409 1.2(DL1 + DL2) + 0.5LL1 + 0.5LLR + 1.0LL2 + 1.0EZ - 0.3EX
1 -0.3 2 1.0 3 1.2 4 1.2 5 0.5 6 1.0 7 0.5 
LOAD COMB 410 1.2(DL1 + DL2) + 0.5LL1 + 0.5LLR + 1.0LL2 - 1.0EZ + 0.3EX
1 0.3 2 -1.0 3 1.2 4 1.2 5 0.5 6 1.0 7 0.5 
LOAD COMB 411 1.2(DL1 + DL2) + 0.5LL1 + 0.5LLR + 1.0LL2 - 1.0EZ - 0.3EX
1 -0.3 2 -1.0 3 1.2 4 1.2 5 0.5 6 1.0 7 0.5 
LOAD COMB 412 0.9(DL1 + DL2) + 1.0EX + 0.3EZ
1 1.0 2 0.3 3 0.9 4 0.9 5 0.0 6 0.0 7 0.0 
LOAD COMB 413 0.9(DL1 + DL2) + 1.0EX - 0.3EZ
1 1.0 2 -0.3 3 0.9 4 0.9 5 0.0 6 0.0 7 0.0 
LOAD COMB 414 0.9(DL1 + DL2) - 1.0EX + 0.3EZ
1 -1.0 2 0.3 3 0.9 4 0.9 5 0.0 6 0.0 7 0.0 
LOAD COMB 415 0.9(DL1 + DL2) - 1.0EX - 0.3EZ
1 -1.0 2 -0.3 3 0.9 4 0.9 5 0.0 6 0.0 7 0.0 
LOAD COMB 416 0.9(DL1 + DL2) + 1.0EZ + 0.3EX
1 0.3 2 1.0 3 0.9 4 0.9 5 0.0 6 0.0 7 0.0 
LOAD COMB 417 0.9(DL1 + DL2) + 1.0EZ - 0.3EX
1 -0.3 2 1.0 3 0.9 4 0.9 5 0.0 6 0.0 7 0.0 
LOAD COMB 418 0.9(DL1 + DL2) - 1.0EZ + 0.3EX
1 0.3 2 -1.0 3 0.9 4 0.9 5 0.0 6 0.0 7 0.0 
LOAD COMB 419 0.9(DL1 + DL2) - 1.0EZ - 0.3EX
1 -0.3 2 -1.0 3 0.9 4 0.9 5 0.0 6 0.0 7 0.0 
******
***ALL COMBINATIONS END HERE***
********************************************
PERFORM ANALYSIS
PRINT CG
DEFINE ENVELOPE
101 TO 135 ENVELOPE 1000 TYPE STRENGTH
201 TO 216 ENVELOPE 2000 TYPE SERVICEABILITY
301 TO 325 ENVELOPE 3000 TYPE SERVICEABILITY
401 TO 419 ENVELOPE 4000 TYPE STRENGTH
END DEFINE ENVELOPE
PRINT STORY STIFFNESS
PRINT DIA CR
LOAD LIST ENV 2000
PRINT STORY DRIFT 0.004200
FINISH
